%nprocshared=8
%mem=4GB
#p opt=tight freq=raman b3lyp/6-31g(d,p) scrf=(solvent=ethanol) pop=full #
density gfinput iop(6/7=3) test units=(ang,deg)

Title Card Required

1 1
Si          0.49185        -0.04564        -0.11096
C          -1.10274        -0.18454        -1.07066
H          -1.04513         0.57271        -1.88522
H          -1.08939        -1.18656        -1.55656
C          -2.39474        -0.00018        -0.25759
H          -2.39511         0.99303         0.23505
H          -2.43769        -0.74589         0.56171
C          -3.61195        -0.13685        -1.14364
H          -3.74188        -1.12279        -1.57299
H          -3.69982         0.63206        -1.90149
N          -5.03350         0.08385        -0.14617
H          -5.02323         1.00100         0.29447
H          -5.90063         0.00525        -0.67436
O           0.53456         1.38549         0.49795
O           1.60726        -0.27453        -1.17744
O           0.46829        -1.15903         0.97557
H          -5.06130        -0.61093         0.59678
C           0.66403        -2.07682         2.00644
H           0.75034        -1.51946         2.94991
H          -0.21367        -2.74015         2.01763
H           1.58269        -2.64182         1.79382
C           2.77125        -0.44793        -1.92503
H           3.22309        -1.40765        -1.63621
H           2.47490        -0.45390        -2.98455
H           3.44850         0.39047        -1.70925
C           0.78646         2.60464         1.12527
H           1.69233         3.03931         0.67926
H          -0.08896         3.24621         0.94496
H           0.92407         2.41624         2.19939

