%nproc=8
%Mem=4GB
#t B3LYP/6-31G(d,p)
# SCRF=(Solvent=water)
# Gfinput IOP(6/7=3)  Pop=hirshfeld  Density  Test
# Units(Ang,Deg)

Title Card Required

-2 2
C          -1.74551        -0.01038        -0.00589
C          -0.28335        -0.56050        -0.02203
H          -0.17460        -1.27285         0.80509
H          -0.15366        -1.14490        -0.94272
C           0.77433         0.53216         0.06450
H           0.65957         1.23885        -0.75781
H           0.68569         1.08332         1.00217
O          -2.64849        -0.88665         0.03016
S           2.47410        -0.21509        -0.01968
H           3.18529         0.92751         0.06929
O          -1.88408         1.24188        -0.04025

