%chk=w-appa_mep_g09.chk
%nproc=8
%Mem=4GB
#p B3LYP/6-31G(d,p)
# SCRF=(Solvent=Water)
# Gfinput IOP(6/7=3)  Pop=Chelp  Density  Test
# Units(Ang,Deg)

Title Card Required

0  1
C           1.06472         1.59171         0.32826
C           2.41539         1.74960         0.01080
C           3.23252         0.64395        -0.21366
C           2.70160        -0.65588        -0.12180
C           1.34068        -0.80536         0.19998
C           0.51927         0.30375         0.42462
H           0.43835         2.46109         0.50765
H           2.84146         2.74701        -0.05612
H           4.28339         0.77815        -0.45654
H           0.92312        -1.80714         0.27909
C          -0.95001         0.10960         0.73790
H          -1.09887        -0.82605         1.28454
H          -1.29969         0.92124         1.38546
C          -1.81593         0.08220        -0.54448
H          -1.69167         1.00441        -1.11553
H          -1.49356        -0.75240        -1.17837
N           3.49312        -1.77157        -0.40167
H           4.48475        -1.63412        -0.25263
H           3.17783        -2.63242         0.02733
C          -3.29297        -0.08574        -0.27032
O          -4.17185         0.66173        -0.65305
O          -3.55227        -1.19099         0.46329
H          -4.51555        -1.22767         0.59707




