28
e-aptms_opt_mopac.out	Energy:    -223.1976900
Si         0.41661        0.21427       -0.01360
C         -1.45128        0.15768       -0.08772
H         -1.79082       -0.23744        0.89605
H         -1.78726        1.21798       -0.15125
C         -2.02786       -0.66634       -1.24067
H         -1.66851       -1.71372       -1.19263
H         -1.68022       -0.27383       -2.22010
C         -3.56822       -0.63812       -1.20659
H         -3.92730        0.41175       -1.29637
H         -3.93313       -1.01787       -0.22878
N         -4.12502       -1.39335       -2.37083
H         -3.69453       -2.31010       -2.44141
H         -5.12044       -1.54664       -2.24311
O          0.90186       -1.24652        0.20469
O          0.72389        1.13440        1.20594
O          0.90176        0.81536       -1.35723
C          1.26671        1.91939        2.22381
H          1.95664        1.29475        2.80890
H          1.79342        2.76563        1.75981
H          0.42649        2.26775        2.84267
C          1.53748        1.32781       -2.48945
H          0.76072        1.47298       -3.25559
H          2.00540        2.28360       -2.21402
H          2.28869        0.59718       -2.82118
C          1.57714       -2.45362        0.38937
H          0.81189       -3.23122        0.53061
H          2.17922       -2.64995       -0.50938
H          2.21332       -2.35838        1.28079
