%nproc=8
%Mem=4GB
#t B3LYP/6-31G(d,p)
# SCRF=(Solvent=Ethanol)
# Gfinput IOP(6/7=3)  Pop=hirshfeld  Density  Test
# Units(Ang,Deg)

e-aptms_opt_freq_g09.log

-1  2
Si          0.69060         0.04601         0.13772
C          -1.01852         0.69927         0.49688
H          -1.12758         0.76117         1.58802
H          -1.07352         1.73344         0.12989
C          -2.17408        -0.12472        -0.10172
H          -2.12332        -1.15548         0.27429
H          -2.07094        -0.18713        -1.19106
C          -3.55084         0.45726         0.22835
H          -3.61697         1.47555        -0.17581
H          -3.64548         0.55037         1.32462
N          -4.61940        -0.34345        -0.38912
H          -4.64663        -1.25700         0.06220
H          -5.51965         0.08308        -0.17751
O           0.80611        -1.47962         0.76469
O           1.90190         0.91279         0.87528
O           0.87521         0.08814        -1.51100
C           2.20900         2.26842         0.55283
H           3.13684         2.53937         1.06349
H           2.35059         2.40637        -0.52524
H           1.41603         2.94590         0.89158
C           2.02060        -0.39572        -2.21232
H           1.99042        -0.00079        -3.23133
H           2.95513        -0.06985        -1.74088
H           2.01490        -1.49063        -2.26291
C           2.01211        -2.17608         1.07631
H           1.76038        -3.01601         1.72949
H           2.48515        -2.57169         0.16998
H           2.72661        -1.52765         1.59319

